OpenDSS/Lines.dss
new wiredata.4/0_ACSR 
~ diam = 14.30 radunits = mm 
~ gmr = 0.002481 gmrunits = m 
~ rac = 0.3678 runits = km 

new wiredata.1/0_ACSR
~ diam = 10.11 radunits = mm 
~ gmr = 0.001359 gmrunits = m 
~ rac = 0.6962 runits = km 

! THREE-PHASE OVERHEAD LINE CONFIGURATION
new linegeometry.13kV nconds=4 nphase=3 units=m
~ cond=1 wire=4/0_ACSR x=0 h=8
~ cond=2 wire=4/0_ACSR x=0.85 h=8
~ cond=3 wire=4/0_ACSR x=1.7 h=8
~ cond=4 wire=1/0_ACSR x=0.65 h=6

! SINGLE PHASE OVERHEAD LINE CONFIGURATION
new linegeometry.7kV nconds=2 nphase=1 units=m
~ cond=1 wire=4/0_ACSR x=0 h=8
~ cond=2 wire=1/0_ACSR x=0 h=6
